<?xml version="1.0" encoding="utf-8"?>
<!DOCTYPE network SYSTEM "http://www.matsim.org/files/dtd/network_v1.dtd">

<network name="simple trainstation">
   <nodes>
      <node id="1" x="-20000" y="0"/>
      <node id="2" x="-15000" y="0"/>
      <node id="7" x="-5000" y="0"/>
      <node id="12" x="0" y="0"/>
      <node id="13" x="5000" y="0"/>
      <node id="14" x="5000" y="-10000"/>
      <node id="15" x="-20000" y="-10000"/>
   </nodes>
   <links capperiod="01:00:00">
      <link id="1" from="1" to="2" length="10000.00" capacity="1000" freespeed="27.78" permlanes="1" modes="car" />
      <!-- <link id="5" from="2" to="6" length="10000.00" capacity="1" freespeed="27.78" permlanes="1" modes="car" />-->
      <link id="6" from="2" to="7" length="10000.00" capacity="4" freespeed="27.78" permlanes="1" modes="car" />
      <!-- <link id="7" from="2" to="8" length="10000.00" capacity="1" freespeed="27.78" permlanes="1" modes="car" /> -->
      <!--<link id="14" from="6" to="12" length="5000.00" capacity="1000" freespeed="27.78" permlanes="1" modes="car" />-->
      <link id="15" from="7" to="12" length="5000.00" capacity="1000" freespeed="27.78" permlanes="1" modes="car" />
      <!--<link id="16" from="8" to="12" length="5000.00" capacity="1000" freespeed="27.78" permlanes="1" modes="car" /> -->
      <link id="20" from="12" to="13" length="10000.00" capacity="1000" freespeed="27.78" permlanes="1" modes="car" />
      <link id="21" from="13" to="14" length="10000.00" capacity="1000" freespeed="27.78" permlanes="1" modes="car" />
      <link id="22" from="14" to="15" length="35000.00" capacity="1000" freespeed="27.78" permlanes="1" modes="car" />
      <link id="23" from="15" to="1" length="10000.00" capacity="1000" freespeed="27.78" permlanes="1" modes="car" />
   </links>
</network>
